CaliforniaTestSystem.m
function mpc = CaliforniaTestSystem
%CALIFORNIATESTSYSTEM

%% MATPOWER Case Format : Version 2
mpc.version = '2';

%%-----  Power Flow Data  -----%%
%% system MVA base
mpc.baseMVA = 100;

%% bus data
%	bus_i	type	Pd	Qd	Gs	Bs	area	Vm	Va	baseKV	zone	Vmax	Vmin
mpc.bus = [
	1	1	19.6043545	19.2966233	0	0	0	1	-1.93980593	115	0	1.06	0.94;
	2	1	4.22082985	2.9027244	0	0	0	1	-1.73352462	66	0	1.06	0.94;
	3	1	0	0	0	0	0	1	-1.76337868	66	0	1.06	0.94;
	4	1	7.89189107	9.60051655	0	0	0	1	-1.80275679	230	0	1.06	0.94;
	5	1	40.1474287	36.0659929	0	0	0	1	-1.89717789	115	0	1.06	0.94;
	6	2	0	0	0	0	0	1	-3.02850892	66	0	1.06	0.94;
	7	1	45.0447474	44.9718173	0	0	0	1	-1.88482693	115	0	1.06	0.94;
	8	1	22.7656323	20.7742554	0	0	0	1	-1.93295117	115	0	1.06	0.94;
	9	1	2.81174646	3.48220304	0	0	0	1	-1.83895175	115	0	1.06	0.94;
	10	1	8.6295799	7.58019105	0	0	0	1	-1.90881322	115	0	1.06	0.94;
	11	1	2.17720603	1.66817152	0	0	0	1	-1.87029284	115	0	1.06	0.94;
	12	1	2.02902597	2.07450385	0	0	0	1	-1.83241485	66	0	1.06	0.94;
	13	1	12.1579683	13.2581647	0	0	0	1	-1.89699598	115	0	1.06	0.94;
	14	1	13.337766	13.6839943	0	0	0	1	-1.8614509	66	0	1.06	0.94;
	15	1	8.643472	10.2556136	0	0	0	1	-1.8144838	66	0	1.06	0.94;
	16	2	7.79708629	7.44664409	0	0	0	1	-1.86240222	66	0	1.06	0.94;
	17	2	16.0948573	15.7377771	0	0	0	1	-1.84519619	66	0	1.06	0.94;
	18	1	0	0	0	0	0	1	-1.63023015	230	0	1.06	0.94;
	19	2	16.3397103	13.9242381	0	0	0	1	-1.91642541	115	0	1.06	0.94;
	20	1	25.1631799	26.480181	0	0	0	1	-1.93845689	115	0	1.06	0.94;
	21	1	4.4276677	5.0391984	0	0	0	1	-1.82601349	115	0	1.06	0.94;
	22	1	2.87535951	3.09646572	0	0	0	1	-1.84105215	115	0	1.06	0.94;
	23	1	0	0	0	0	0	1	-1.77754931	66	0	1.06	0.94;
	24	1	2.81660333	3.0864519	0	0	0	1	-1.8414864	66	0	1.06	0.94;
	25	1	1.53232966	1.85358804	0	0	0	1	-1.88110829	66	0	1.06	0.94;
	26	1	1.85988904	1.78565499	0	0	0	1	-1.86452695	66	0	1.06	0.94;
	27	1	1.82174015	2.0451954	0	0	0	1	-1.87401788	66	0	1.06	0.94;
	28	2	0	0	0	0	0	1	-1.85560919	66	0	1.06	0.94;
	29	1	2.82562915	2.75796892	0	0	0	1	-1.86439136	66	0	1.06	0.94;
	30	1	1.5841309	1.80452735	0	0	0	1	-1.86879856	66	0	1.06	0.94;
	31	1	0.894324444	1.0419204	0	0	0	1	-1.90719102	66	0	1.06	0.94;
	32	2	0	0	0	0	0	1	-1.85269029	115	0	1.06	0.94;
	33	1	1.71227779	2.07137252	0	0	0	1	-1.83703493	66	0	1.06	0.94;
	34	1	0	0	0	0	0	1	-1.79136128	115	0	1.06	0.94;
	35	1	0	0	0	0	0	1	-1.91778705	66	0	1.06	0.94;
	36	1	2.85594898	2.78160369	0	0	0	1	-2.17136225	66	0	1.06	0.94;
	37	1	4.46446955	3.2536044	0	0	0	1	-1.92179128	66	0	1.06	0.94;
	38	1	0.908610083	1.09574375	0	0	0	1	-2.17595447	66	0	1.06	0.94;
	39	1	2.07035691	2.39452001	0	0	0	1	-0.195557869	115	0	1.06	0.94;
	40	1	0	0	0	0	0	1	-1.96189059	66	0	1.06	0.94;
	41	1	1.21256341	1.3791447	0	0	0	1	-1.98652652	66	0	1.06	0.94;
	42	1	1.72473206	1.72839141	0	0	0	1	-2.21990256	115	0	1.06	0.94;
	43	2	0	0	0	0	0	1	-1.90673506	115	0	1.06	0.94;
	44	1	2.91744425	3.56654251	0	0	0	1	-1.90195146	115	0	1.06	0.94;
	45	1	0	0	0	0	0	1	0.555613354	115	0	1.06	0.94;
	46	2	0	0	0	0	0	1	-1.867221	115	0	1.06	0.94;
	47	1	4.92592627	4.02226377	0	0	0	1	-1.96366661	66	0	1.06	0.94;
	48	1	6.69258945	6.97641914	0	0	0	1	-1.90541926	115	0	1.06	0.94;
	49	2	0	0	0	0	0	1	-1.90402472	66	0	1.06	0.94;
	50	1	0	0	0	0	0	1	-1.91262746	66	0	1.06	0.94;
	51	2	0	0	0	0	0	1	-2.17286691	66	0	1.06	0.94;
	52	1	0.725084799	0.862900021	0	0	0	1	-1.90578789	115	0	1.06	0.94;
	53	1	1.60417822	1.47580841	0	0	0	1	-2.2161384	115	0	1.06	0.94;
	54	1	0	0	0	0	0	1	-1.84908074	115	0	1.06	0.94;
	55	1	1.09920148	1.47132263	0	0	0	1	-1.82975354	66	0	1.06	0.94;
	56	1	2.86374395	2.79775093	0	0	0	1	-1.84231348	115	0	1.06	0.94;
	57	1	0	0	0	0	0	1	-1.83896205	66	0	1.06	0.94;
	58	1	0	0	0	0	0	1	-1.83817297	115	0	1.06	0.94;
	59	1	0	0	0	0	0	1	-1.74070941	230	0	1.06	0.94;
	60	2	0	0	0	0	0	1	-1.83817297	115	0	1.06	0.94;
	61	1	0	0	0	0	0	1	-1.82796839	66	0	1.06	0.94;
	62	1	0	0	0	0	0	1	-2.16988286	66	0	1.06	0.94;
	63	1	2.62802353	2.59311299	0	0	0	1	-2.1204573	66	0	1.06	0.94;
	64	1	2.31856024	2.2618043	0	0	0	1	-2.1810664	66	0	1.06	0.94;
	65	1	2.50967794	2.81021587	0	0	0	1	-2.17978042	66	0	1.06	0.94;
	66	1	0	0	0	0	0	1	-2.09891984	66	0	1.06	0.94;
	67	1	1.11088506	1.04209098	0	0	0	1	-2.07085394	66	0	1.06	0.94;
	68	2	0	0	0	0	0	1	-2.1331414	66	0	1.06	0.94;
	69	1	6.57604277	7.18774622	0	0	0	1	-1.87328341	115	0	1.06	0.94;
	70	1	0.845797267	1.08093108	0	0	0	1	-1.70926769	66	0	1.06	0.94;
	71	2	0	0	0	0	0	1	-1.82216882	66	0	1.06	0.94;
	72	1	0.85090743	1.13383821	0	0	0	1	-1.70022783	66	0	1.06	0.94;
	73	1	0	0	0	0	0	1	-1.82228258	66	0	1.06	0.94;
	74	1	20.1994149	13.9607118	0	0	0	1	-1.8863565	115	0	1.06	0.94;
	75	1	2.57022982	2.87944545	0	0	0	1	-1.86808469	115	0	1.06	0.94;
	76	2	0	0	0	0	0	1	-1.94185932	66	0	1.06	0.94;
	77	1	8.77067602	9.12695143	0	0	0	1	-1.95359236	66	0	1.06	0.94;
	78	1	1.36757028	1.5445712	0	0	0	1	-1.71997808	66	0	1.06	0.94;
	79	1	0	0	0	0	0	1	-1.75423754	66	0	1.06	0.94;
	80	1	2.12470694	2.34549235	0	0	0	1	-1.8572525	115	0	1.06	0.94;
	81	1	1.37307381	1.83667568	0	0	0	1	-1.75930088	66	0	1.06	0.94;
	82	1	19.4781098	23.2512491	0	0	0	1	-1.86362063	115	0	1.06	0.94;
	83	1	2.86131246	2.08088513	0	0	0	1	-1.81237178	115	0	1.06	0.94;
	84	1	3.85373671	4.67447505	0	0	0	1	-1.84087553	66	0	1.06	0.94;
	85	1	1.15805922	1.330107	0	0	0	1	-1.88621398	115	0	1.06	0.94;
	86	1	1.37976854	1.5341614	0	0	0	1	-1.87311537	115	0	1.06	0.94;
	87	1	1.49596891	1.38334461	0	0	0	1	-1.80372137	115	0	1.06	0.94;
	88	1	7.37041783	6.83793761	0	0	0	1	-1.9428407	66	0	1.06	0.94;
	89	1	0	0	0	0	0	1	-1.70924869	66	0	1.06	0.94;
	90	2	1.46717473	1.6259659	0	0	0	1	-1.86138501	115	0	1.06	0.94;
	91	1	1.57733326	2.10502898	0	0	0	1	-1.75638805	66	0	1.06	0.94;
	92	1	20.9099787	22.8261941	0	0	0	1	-1.88598182	115	0	1.06	0.94;
	93	1	15.1950202	12.5232825	0	0	0	1	-1.96379649	115	0	1.06	0.94;
	94	1	3.53801969	3.86986243	0	0	0	1	-1.95982675	66	0	1.06	0.94;
	95	1	11.9283647	12.9081944	0	0	0	1	-1.79268787	230	0	1.06	0.94;
	96	1	2.29979088	2.45540424	0	0	0	1	-1.97942832	66	0	1.06	0.94;
	97	1	0	0	0	0	0	1	-1.92684101	66	0	1.06	0.94;
	98	1	0	0	0	0	0	1	-2.18807428	66	0	1.06	0.94;
	99	1	4.41024364	4.64854504	0	0	0	1	-1.89616984	115	0	1.06	0.94;
	100	1	2.90932901	2.83732623	0	0	0	1	-1.97668176	115	0	1.06	0.94;
	101	1	5.17220281	5.16384764	0	0	0	1	-2.01410144	66	0	1.06	0.94;
	102	1	2.76304589	2.99388001	0	0	0	1	-2.06900491	66	0	1.06	0.94;
	103	2	0	0	0	0	0	1	-1.95932964	115	0	1.06	0.94;
	104	1	2.4876973	2.91932463	0	0	0	1	-2.00098907	66	0	1.06	0.94;
	105	2	0	0	0	0	0	1	-1.86665511	66	0	1.06	0.94;
	106	2	1.87098919	1.80061474	0	0	0	1	-1.89105421	115	0	1.06	0.94;
	107	1	11.8071621	9.2098801	0	0	0	1	-0.549530416	115	0	1.06	0.94;
	108	2	11.4930855	11.8783214	0	0	0	1	-0.645077915	115	0	1.06	0.94;
	109	1	0.585358773	0.740134922	0	0	0	1	-0.715003219	66	0	1.06	0.94;
	110	1	3.71802919	3.13477957	0	0	0	1	-0.888714083	66	0	1.06	0.94;
	111	2	0	0	0	0	0	1	-1.04280584	500	0	1.06	0.94;
	112	2	0	0	0	0	0	1	-0.888499383	66	0	1.06	0.94;
	113	2	0	0	0	0	0	1	-0.574791361	115	0	1.06	0.94;
	114	1	3.9869336	2.45477024	0	0	0	1	-1.26552643	66	0	1.06	0.94;
	115	1	2.43527025	2.6427117	0	0	0	1	-0.86596821	66	0	1.06	0.94;
	116	2	0	0	0	0	0	1	-1.14816583	66	0	1.06	0.94;
	117	1	4.49655657	4.80546236	0	0	0	1	-1.12673895	115	0	1.06	0.94;
	118	1	1.8544719	1.22531333	0	0	0	1	-1.13065103	66	0	1.06	0.94;
	119	1	5.38736006	5.47495317	0	0	0	1	-1.07524384	66	0	1.06	0.94;
	120	1	1.44047561	1.5353051	0	0	0	1	-0.725753296	66	0	1.06	0.94;
	121	2	0	0	0	0	0	1	-1.11845536	115	0	1.06	0.94;
	122	1	0.857190692	0.762918738	0	0	0	1	-1.19557871	66	0	1.06	0.94;
	123	1	1.82685914	2.14908171	0	0	0	1	-0.816548354	66	0	1.06	0.94;
	124	1	4.04347977	3.35420588	0	0	0	1	-1.13473042	115	0	1.06	0.94;
	125	2	0	0	0	0	0	1	-0.467428502	66	0	1.06	0.94;
	126	1	2.48702016	2.97689065	0	0	0	1	-0.886776199	66	0	1.06	0.94;
	127	1	0	0	0	0	0	1	-0.703017534	66	0	1.06	0.94;
	128	1	1.9065865	2.36918033	0	0	0	1	-0.720855548	66	0	1.06	0.94;
	129	1	0	0	0	0	0	1	-1.19703367	66	0	1.06	0.94;
	130	1	0	0	0	0	0	1	-1.080986	66	0	1.06	0.94;
	131	2	0	0	0	0	0	1	-1.07516969	66	0	1.06	0.94;
	132	1	0	0	0	0	0	1	-0.992140878	66	0	1.06	0.94;
	133	1	1.02367827	1.03002	0	0	0	1	-0.908118453	66	0	1.06	0.94;
	134	1	0	0	0	0	0	1	-0.90762032	66	0	1.06	0.94;
	135	1	0	0	0	0	0	1	-0.579938309	115	0	1.06	0.94;
	136	1	3.65212506	3.03516566	0	0	0	1	-0.466449496	230	0	1.06	0.94;
	137	2	0	0	0	0	0	1	-1.18292184	66	0	1.06	0.94;
	138	2	0	0	0	0	0	1	-1.18591175	66	0	1.06	0.94;
	139	1	3.8407711	3.50717652	0	0	0	1	-0.919656984	66	0	1.06	0.94;
	140	1	6.78461167	6.79844043	0	0	0	1	-0.685852892	66	0	1.06	0.94;
	141	1	0	0	0	0	0	1	-0.621120245	115	0	1.06	0.94;
	142	1	6.00558692	6.15070772	0	0	0	1	-0.61740432	115	0	1.06	0.94;
	143	1	0	0	0	0	0	1	-0.688998393	66	0	1.06	0.94;
	144	1	0	0	0	0	0	1	-1.07653913	66	0	1.06	0.94;
	145	2	0	0	0	0	0	1	-1.09144506	66	0	1.06	0.94;
	146	1	1.89299299	1.2918047	0	0	0	1	-0.618804677	66	0	1.06	0.94;
	147	1	30.0345736	20.67021	0	0	0	1	-0.581817574	115	0	1.06	0.94;
	148	1	4.4033993	3.61783724	0	0	0	1	-1.15168519	66	0	1.06	0.94;
	149	2	0	0	0	0	0	1	-1.11262553	66	0	1.06	0.94;
	150	1	3.19712573	3.63500269	0	0	0	1	-1.18175984	115	0	1.06	0.94;
	151	1	1.68002786	1.66897719	0	0	0	1	-2.02194559	66	0	1.06	0.94;
	152	1	0	0	0	0	0	1	-1.90359015	66	0	1.06	0.94;
	153	1	0	0	0	0	0	1	-1.94449753	66	0	1.06	0.94;
	154	1	1.99928901	1.84326717	0	0	0	1	-1.78655474	230	0	1.06	0.94;
	155	2	0	0	0	0	0	1	-1.95171622	66	0	1.06	0.94;
	156	1	1.70910396	1.62630508	0	0	0	1	-2.02987762	66	0	1.06	0.94;
	157	1	0	0	0	0	0	1	-2.01293091	66	0	1.06	0.94;
	158	2	0	0	0	0	0	1	-2.00639938	66	0	1.06	0.94;
	159	2	0	0	0	0	0	1	-2.18376599	66	0	1.06	0.94;
	160	1	4.38444977	4.34951494	0	0	0	1	-2.1762775	66	0	1.06	0.94;
	161	1	1.38844143	1.62604223	0	0	0	1	-2.21592608	66	0	1.06	0.94;
	162	1	0	0	0	0	0	1	-2.18376599	66	0	1.06	0.94;
	163	1	0	0	0	0	0	1	-2.18376599	66	0	1.06	0.94;
	164	2	0	0	0	0	0	1	-2.03738056	115	0	1.06	0.94;
	165	2	0	0	0	0	0	1	-2.18268297	66	0	1.06	0.94;
	166	2	0	0	0	0	0	1	-3.04767069	66	0	1.06	0.94;
	167	1	1.34555781	1.39217954	0	0	0	1	-3.05534857	66	0	1.06	0.94;
	168	1	0	0	0	0	0	1	-3.036599	66	0	1.06	0.94;
	169	1	3.43910835	4.25448666	0	0	0	1	-2.16264486	66	0	1.06	0.94;
	170	2	0	0	0	0	0	1	-2.16989294	66	0	1.06	0.94;
	171	1	1.78847432	1.89499634	0	0	0	1	-2.18038071	66	0	1.06	0.94;
	172	1	3.89158943	0.875767498	0	0	0	1	-2.182848	66	0	1.06	0.94;
	173	1	0	0	0	0	0	1	-2.19854475	66	0	1.06	0.94;
	174	1	1.94268184	2.42554098	0	0	0	1	-1.64445622	230	0	1.06	0.94;
	175	2	0	0	0	0	0	1	-2.20679647	66	0	1.06	0.94;
	176	1	0	0	0	0	0	1	-2.12090854	66	0	1.06	0.94;
	177	1	2.01821877	1.96665921	0	0	0	1	-2.20659424	66	0	1.06	0.94;
	178	1	0	0	0	0	0	1	-2.13308192	66	0	1.06	0.94;
	179	1	3.1139835	2.79632049	0	0	0	1	-1.8851127	66	0	1.06	0.94;
	180	1	2.99038996	3.58751105	0	0	0	1	-2.21073759	66	0	1.06	0.94;
	181	2	2.64444255	2.4735018	0	0	0	1	0.829116116	115	0	1.06	0.94;
	182	2	0	0	0	0	0	1	0.698453587	115	0	1.06	0.94;
	183	1	0.707432855	0.980253151	0	0	0	1	0.935785762	66	0	1.06	0.94;
	184	1	2.37989416	2.49605354	0	0	0	1	1.00473126	115	0	1.06	0.94;
	185	1	0	0	0	0	0	1	0.713644437	115	0	1.06	0.94;
	186	1	5.2063	6.10165638	0	0	0	1	0.903843074	66	0	1.06	0.94;
	187	1	4.04014515	4.29729639	0	0	0	1	0.81955293	115	0	1.06	0.94;
	188	1	3.41583743	3.92965395	0	0	0	1	0.652624204	115	0	1.06	0.94;
	189	1	0	0	0	0	0	1	0.854676153	115	0	1.06	0.94;
	190	1	1.47300477	1.40304456	0	0	0	1	0.897244032	115	0	1.06	0.94;
	191	1	0	0	0	0	0	1	0.89834282	115	0	1.06	0.94;
	192	2	0	0	0	0	0	1	0.854078988	66	0	1.06	0.94;
	193	1	0.558739659	0.591282216	0	0	0	1	0.935143199	66	0	1.06	0.94;
	194	2	0	0	0	0	0	1	0.872314008	115	0	1.06	0.94;
	195	2	0	0	0	0	0	1	0.972228347	66	0	1.06	0.94;
	196	1	0	0	0	0	0	1	0.921732718	115	0	1.06	0.94;
	197	1	1.88559669	2.36725781	0	0	0	1	0.850254041	115	0	1.06	0.94;
	198	2	0	0	0	0	0	1	0.765124565	115	0	1.06	0.94;
	199	1	2.14793155	2.34949248	0	0	0	1	0.820652507	66	0	1.06	0.94;
	200	2	0	0	0	0	0	1	0.828221651	66	0	1.06	0.94;
...
];

%% generator data
%	bus	Pg	Qg	Qmax	Qmin	Vg	mBase	status	Pmax	Pmin	Pc1	Pc2	Qc1min	Qc1max	Qc2min	Qc2max	ramp_agc	ramp_10	ramp_30	ramp_q	apf
mpc.gen = [
	1804	0	0	34.5	-23.7	1	0	1	71.2	0	0	0	0	0	0	0	0	0	0	0	0;
	1804	0	0	34.5	-23.7	1	0	1	71.2	0	0	0	0	0	0	0	0	0	0	0	0;
	170	8.53137587	0	12.5222222	-5.56666667	1	0	1	16.7	0	0	0	0	0	0	0	0	0	0	0	0;
	170	8.53137587	0	12.5222222	-5.56666667	1	0	1	16.7	0	0	0	0	0	0	0	0	0	0	0	0;
	170	8.53137587	0	12.5222222	-5.56666667	1	0	1	16.7	0	0	0	0	0	0	0	0	0	0	0	0;
	170	8.53137587	0	12.5222222	-5.56666667	1	0	1	16.7	0	0	0	0	0	0	0	0	0	0	0	0;
	170	8.53137587	0	12.5222222	-5.56666667	1	0	1	16.7	0	0	0	0	0	0	0	0	0	0	0	0;
	170	8.53137587	0	12.5222222	-5.56666667	1	0	1	16.7	0	0	0	0	0	0	0	0	0	0	0	0;
	170	8.53137587	0	12.5222222	-5.56666667	1	0	1	16.7	0	0	0	0	0	0	0	0	0	0	0	0;
	170	8.53137587	0	12.5222222	-5.56666667	1	0	1	16.7	0	0	0	0	0	0	0	0	0	0	0	0;
	170	8.53137587	0	12.5222222	-5.56666667	1	0	1	16.7	0	0	0	0	0	0	0	0	0	0	0	0;
	170	8.53137587	0	12.5222222	-5.56666667	1	0	1	16.7	0	0	0	0	0	0	0	0	0	0	0	0;
	7971	92.8860991	0	144.4	-77.7	1	0	1	233	0	0	0	0	0	0	0	0	0	0	0	0;
	7971	92.8860991	0	144.4	-77.7	1	0	1	233	0	0	0	0	0	0	0	0	0	0	0	0;
	7971	92.8860991	0	144.4	-77.7	1	0	1	233	0	0	0	0	0	0	0	0	0	0	0	0;
	7971	92.8860991	0	144.4	-77.7	1	0	1	233	0	0	0	0	0	0	0	0	0	0	0	0;
	7971	92.8860991	0	144.4	-77.7	1	0	1	233	0	0	0	0	0	0	0	0	0	0	0	0;
	7971	92.8860991	0	144.4	-77.7	1	0	1	233	0	0	0	0	0	0	0	0	0	0	0	0;
	8113	0	0	0	0	1	0	1	310	0	0	0	0	0	0	0	0	0	0	0	0;
	8113	0	0	0	0	1	0	1	310	0	0	0	0	0	0	0	0	0	0	0	0;
	8113	0	0	0	0	1	0	1	495	0	0	0	0	0	0	0	0	0	0	0	0;
	8343	0	0	0	0	1	0	1	218	0	0	0	0	0	0	0	0	0	0	0	0;
	8347	26.7195254	0	30.5	-21	1	0	1	63	0	0	0	0	0	0	0	0	0	0	0	0;
	8347	26.7195254	0	30.5	-21	1	0	1	63	0	0	0	0	0	0	0	0	0	0	0	0;
	8347	26.7195254	0	30.5	-21	1	0	1	63	0	0	0	0	0	0	0	0	0	0	0	0;
	8347	26.7195254	0	30.5	-21	1	0	1	63	0	0	0	0	0	0	0	0	0	0	0	0;
	1483	0	0	499.5	-268.7	1	0	1	806	0	0	0	0	0	0	0	0	0	0	0	0;
	1483	0	0	499.5	-268.7	1	0	1	806	0	0	0	0	0	0	0	0	0	0	0	0;
	7747	0	0	0	0	1	0	1	163.2	0	0	0	0	0	0	0	0	0	0	0	0;
	7747	0	0	0	0	1	0	1	163.2	0	0	0	0	0	0	0	0	0	0	0	0;
	7747	0	0	0	0	1	0	1	495	0	0	0	0	0	0	0	0	0	0	0	0;
	7808	84.0876924	0	123.5	-54.9	1	0	1	164.6	0	0	0	0	0	0	0	0	0	0	0	0;
	7808	84.0876924	0	123.5	-54.9	1	0	1	164.6	0	0	0	0	0	0	0	0	0	0	0	0;
	7808	74.039383	0	141.9	-63.1	1	0	1	189.2	0	0	0	0	0	0	0	0	0	0	0	0;
	7808	84.0876924	0	123.5	-54.9	1	0	1	164.6	0	0	0	0	0	0	0	0	0	0	0	0;
	7808	84.0876924	0	123.5	-54.9	1	0	1	164.6	0	0	0	0	0	0	0	0	0	0	0	0;
	7808	74.039383	0	141.9	-63.1	1	0	1	189.2	0	0	0	0	0	0	0	0	0	0	0	0;
	1693	5.26766914	0	12.4	-6.7	1	0	1	20	0	0	0	0	0	0	0	0	0	0	0	0;
	1693	5.26766914	0	12.4	-6.7	1	0	1	20	0	0	0	0	0	0	0	0	0	0	0	0;
	1693	0	0	14.3	-7.7	1	0	1	23	0	0	0	0	0	0	0	0	0	0	0	0;
	1693	0	0	31	-16.7	1	0	1	50	0	0	0	0	0	0	0	0	0	0	0	0;
	1693	0	0	31	-16.7	1	0	1	50	0	0	0	0	0	0	0	0	0	0	0	0;
	1693	12.975865	0	12.3	-8.5	1	0	1	25.4	0	0	0	0	0	0	0	0	0	0	0	0;
	1693	28.1484318	0	26.7	-18.4	1	0	1	55.1	0	0	0	0	0	0	0	0	0	0	0	0;
	1693	26.8597156	0	35.6	-19.1	1	0	1	57.4	0	0	0	0	0	0	0	0	0	0	0	0;
	7751	9.44197754	0	21.4	-11.5	1	0	1	34.5	0	0	0	0	0	0	0	0	0	0	0	0;
	7751	45.9263892	0	55.7	-30	1	0	1	89.9	0	0	0	0	0	0	0	0	0	0	0	0;
	7751	31.2389926	0	61.2301676	-35.8709497	1	0	1	65.9	0	0	0	0	0	0	0	0	0	0	0	0;
	7751	22.0691877	0	61.2301676	-35.8709497	1	0	1	43.2	0	0	0	0	0	0	0	0	0	0	0	0;
	7751	22.0691877	0	61.2301676	-35.8709497	1	0	1	43.2	0	0	0	0	0	0	0	0	0	0	0	0;
	7751	0	0	50.6	-27.2	1	0	1	81.6	0	0	0	0	0	0	0	0	0	0	0	0;
	7751	9.31968334	0	0	0	1	0	1	30	0	0	0	0	0	0	0	0	0	0	0	0;
	346	43.5764289	0	52.9	-28.4	1	0	1	85.3	0	0	0	0	0	0	0	0	0	0	0	0;
	346	43.5764289	0	52.9	-28.4	1	0	1	85.3	0	0	0	0	0	0	0	0	0	0	0	0;
	346	25.3793805	0	56.3	-25	1	0	1	75	0	0	0	0	0	0	0	0	0	0	0	0;
	346	26.1330474	0	37.5	-20.2	1	0	1	60.5	0	0	0	0	0	0	0	0	0	0	0	0;
	346	26.1330474	0	37.5	-20.2	1	0	1	60.5	0	0	0	0	0	0	0	0	0	0	0	0;
	346	26.1330474	0	37.5	-20.2	1	0	1	60.5	0	0	0	0	0	0	0	0	0	0	0	0;
	346	26.1330474	0	37.5	-20.2	1	0	1	60.5	0	0	0	0	0	0	0	0	0	0	0	0;
	346	26.1330474	0	37.5	-20.2	1	0	1	60.5	0	0	0	0	0	0	0	0	0	0	0	0;
	2401	0	0	142.5	-76.7	1	0	1	230	0	0	0	0	0	0	0	0	0	0	0	0;
	2401	93.3853597	0	113.3	-60.9	1	0	1	182.8	0	0	0	0	0	0	0	0	0	0	0	0;
	2401	34.2129814	0	24.5645161	-14.3219355	1	0	1	108.2	0	0	0	0	0	0	0	0	0	0	0	0;
	2401	34.2129814	0	24.5645161	-14.3219355	1	0	1	108.2	0	0	0	0	0	0	0	0	0	0	0	0;
	2401	34.2129814	0	24.5645161	-14.3219355	1	0	1	108.2	0	0	0	0	0	0	0	0	0	0	0	0;
	2401	34.2129814	0	24.5645161	-14.3219355	1	0	1	108.2	0	0	0	0	0	0	0	0	0	0	0	0;
	2401	34.2129814	0	24.5645161	-14.3219355	1	0	1	108.2	0	0	0	0	0	0	0	0	0	0	0	0;
	2401	34.2129814	0	24.5645161	-14.3219355	1	0	1	108.2	0	0	0	0	0	0	0	0	0	0	0	0;
	2401	0	0	142.5	-76.7	1	0	1	230	0	0	0	0	0	0	0	0	0	0	0	0;
	2401	107.979734	0	163.8	-88.1	1	0	1	264.3	0	0	0	0	0	0	0	0	0	0	0	0;
	2401	93.3853597	0	113.3	-60.9	1	0	1	182.8	0	0	0	0	0	0	0	0	0	0	0	0;
	7773	0	0	101.1	-54.4	1	0	1	163.2	0	0	0	0	0	0	0	0	0	0	0	0;
	7773	0	0	101.1	-54.4	1	0	1	163.2	0	0	0	0	0	0	0	0	0	0	0	0;
	7773	91.7835554	0	61.2301676	-35.8709497	1	0	1	216.9	0	0	0	0	0	0	0	0	0	0	0	0;
	7773	60.7413528	0	61.2301676	-35.8709497	1	0	1	118.9	0	0	0	0	0	0	0	0	0	0	0	0;
	7773	25.5340615	0	24.5645161	-14.3219355	1	0	1	106.9	0	0	0	0	0	0	0	0	0	0	0	0;
	7773	25.5340615	0	24.5645161	-14.3219355	1	0	1	106.9	0	0	0	0	0	0	0	0	0	0	0	0;
	8018	26.2404122	0	37.5	-20.2	1	0	1	60.5	0	0	0	0	0	0	0	0	0	0	0	0;
	8018	93.3853597	0	113.3	-60.9	1	0	1	182.8	0	0	0	0	0	0	0	0	0	0	0	0;
	8018	93.3853597	0	113.3	-60.9	1	0	1	182.8	0	0	0	0	0	0	0	0	0	0	0	0;
	8018	107.970642	0	163.9	-88.1	1	0	1	264.4	0	0	0	0	0	0	0	0	0	0	0	0;
	426	14.7127918	0	17.8	-9.6	1	0	1	28.8	0	0	0	0	0	0	0	0	0	0	0	0;
	426	14.7127918	0	17.8	-9.6	1	0	1	28.8	0	0	0	0	0	0	0	0	0	0	0	0;
	426	26.0596102	0	37.5	-20.2	1	0	1	60.5	0	0	0	0	0	0	0	0	0	0	0	0;
	426	26.0596102	0	37.5	-20.2	1	0	1	60.5	0	0	0	0	0	0	0	0	0	0	0	0;
	426	25.3793805	0	61.2301676	-35.8709497	1	0	1	71	0	0	0	0	0	0	0	0	0	0	0	0;
	426	8.17377288	0	61.2301676	-35.8709497	1	0	1	16	0	0	0	0	0	0	0	0	0	0	0	0;
	2250	28.0973456	0	26.6	-18.3	1	0	1	55	0	0	0	0	0	0	0	0	0	0	0	0;
	8292	4.97428658	0	12.1	-8.3	1	0	1	24.9	0	0	0	0	0	0	0	0	0	0	0	0;
	8292	4.97428658	0	12.1	-8.3	1	0	1	24.9	0	0	0	0	0	0	0	0	0	0	0	0;
	1872	3.89514892	0	11.2	-7.7	1	0	1	23.1	0	0	0	0	0	0	0	0	0	0	0	0;
	1872	3.89514892	0	11.2	-7.7	1	0	1	23.1	0	0	0	0	0	0	0	0	0	0	0	0;
	1872	3.89514892	0	11.2	-7.7	1	0	1	23.1	0	0	0	0	0	0	0	0	0	0	0	0;
	1872	3.89514892	0	11.2	-7.7	1	0	1	23.1	0	0	0	0	0	0	0	0	0	0	0	0;
	1951	592.087704	0	561.3	-386.3	1	0	1	1159	0	0	0	0	0	0	0	0	0	0	0	0;
	1951	594.642007	0	563.8	-388	1	0	1	1164	0	0	0	0	0	0	0	0	0	0	0	0;
	1610	0	0	36.1	-24.8	1	0	1	74.5	0	0	0	0	0	0	0	0	0	0	0	0;
	1610	0	0	36.1	-24.8	1	0	1	74.5	0	0	0	0	0	0	0	0	0	0	0	0;
	1610	0	0	36.1	-24.8	1	0	1	74.5	0	0	0	0	0	0	0	0	0	0	0	0;
	1752	0	0	30.8333333	-20.8	1	0	1	2.5	0	0	0	0	0	0	0	0	0	0	0	0;
	1752	0	0	30.8333333	-20.8	1	0	1	2.5	0	0	0	0	0	0	0	0	0	0	0	0;
	1752	0	0	30.8333333	-20.8	1	0	1	2.5	0	0	0	0	0	0	0	0	0	0	0	0;
	1752	0	0	30.8333333	-20.8	1	0	1	2.5	0	0	0	0	0	0	0	0	0	0	0	0;
	1752	0	0	30.8333333	-20.8	1	0	1	2.5	0	0	0	0	0	0	0	0	0	0	0	0;
	1752	0	0	30.8333333	-20.8	1	0	1	2.5	0	0	0	0	0	0	0	0	0	0	0	0;
	2409	1.99235716	0	24.5645161	-14.3219355	1	0	1	3.9	0	0	0	0	0	0	0	0	0	0	0	0;
	2409	1.99235716	0	24.5645161	-14.3219355	1	0	1	3.9	0	0	0	0	0	0	0	0	0	0	0	0;
	1801	10.3128819	0	23.4	-12.6	1	0	1	37.7	0	0	0	0	0	0	0	0	0	0	0	0;
	1801	30.9070803	0	37.5	-20.2	1	0	1	60.5	0	0	0	0	0	0	0	0	0	0	0	0;
	1801	4.29123097	0	61.5666667	-27.3666667	1	0	1	8.4	0	0	0	0	0	0	0	0	0	0	0	0;
	1801	4.29123097	0	61.5666667	-27.3666667	1	0	1	8.4	0	0	0	0	0	0	0	0	0	0	0	0;
	1801	4.29123097	0	61.5666667	-27.3666667	1	0	1	8.4	0	0	0	0	0	0	0	0	0	0	0	0;
	1801	4.29123097	0	61.5666667	-27.3666667	1	0	1	8.4	0	0	0	0	0	0	0	0	0	0	0	0;
	1801	4.29123097	0	61.5666667	-27.3666667	1	0	1	8.4	0	0	0	0	0	0	0	0	0	0	0	0;
	1801	4.29123097	0	61.5666667	-27.3666667	1	0	1	8.4	0	0	0	0	0	0	0	0	0	0	0	0;
	1801	25.7473833	0	24.4	-16.8	1	0	1	50.4	0	0	0	0	0	0	0	0	0	0	0	0;
	1499	1.12076481	0	24.5645161	-14.3219355	1	0	1	18	0	0	0	0	0	0	0	0	0	0	0	0;
	1499	12.9969638	0	13.5	-9.3	1	0	1	27.9	0	0	0	0	0	0	0	0	0	0	0	0;
	1499	12.9969638	0	13.5	-9.3	1	0	1	27.9	0	0	0	0	0	0	0	0	0	0	0	0;
	1499	6.6613032	0	16.6	-8.9	1	0	1	26.8	0	0	0	0	0	0	0	0	0	0	0	0;
	1499	20.4344333	0	30	-13.3	1	0	1	40	0	0	0	0	0	0	0	0	0	0	0	0;
	1499	21.7115851	0	61.2301676	-35.8709497	1	0	1	42.5	0	0	0	0	0	0	0	0	0	0	0	0;
	1762	28.0973456	0	32.6	-18.3	1	0	1	55	0	0	0	0	0	0	0	0	0	0	0	0;
	1762	28.0973456	0	32.6	-18.3	1	0	1	55	0	0	0	0	0	0	0	0	0	0	0	0;
	552	0	0	4.5	-2	1	0	1	6	0	0	0	0	0	0	0	0	0	0	0	0;
	552	0	0	4.5	-2	1	0	1	6	0	0	0	0	0	0	0	0	0	0	0	0;
	552	0	0	4.5	-2	1	0	1	6	0	0	0	0	0	0	0	0	0	0	0	0;
	552	0	0	4.5	-2	1	0	1	6	0	0	0	0	0	0	0	0	0	0	0	0;
	552	0	0	4.5	-2	1	0	1	6	0	0	0	0	0	0	0	0	0	0	0	0;
	1787	25.5430395	0	16.4	-16.4	1	0	1	50	0	0	0	0	0	0	0	0	0	0	0	0;
	1617	10.1669335	0	9	-9	1	0	1	27.4	0	0	0	0	0	0	0	0	0	0	0	0;
	1617	10.1669335	0	9	-9	1	0	1	27.4	0	0	0	0	0	0	0	0	0	0	0	0;
	1775	25.4408691	0	24.1	-16.6	1	0	1	49.8	0	0	0	0	0	0	0	0	0	0	0	0;
	1775	25.4408691	0	24.1	-16.6	1	0	1	49.8	0	0	0	0	0	0	0	0	0	0	0	0;
	1775	25.4408691	0	24.1	-16.6	1	0	1	49.8	0	0	0	0	0	0	0	0	0	0	0	0;
	1775	22.4778766	0	21.3	-14.7	1	0	1	44	0	0	0	0	0	0	0	0	0	0	0	0;
	7882	60.639181	0	57.5	-39.6	1	0	1	118.7	0	0	0	0	0	0	0	0	0	0	0	0;
	7882	16.3527319	0	34.2	-18.4	1	0	1	55.2	0	0	0	0	0	0	0	0	0	0	0	0;
	8495	0	0	15.4	-8.3	1	0	1	24.9	0	0	0	0	0	0	0	0	0	0	0	0;
	8495	0	0	15.4	-8.3	1	0	1	24.9	0	0	0	0	0	0	0	0	0	0	0	0;
	351	26.9216866	0	37.5	-20.2	1	0	1	60.5	0	0	0	0	0	0	0	0	0	0	0	0;
	1222	26.6691606	0	24.5645161	-14.3219355	1	0	1	58	0	0	0	0	0	0	0	0	0	0	0	0;
	1056	0	0	13.9	-9.5	1	0	1	0.8	0	0	0	0	0	0	0	0	0	0	0	0;
	1056	0	0	13.9	-9.5	1	0	1	0.8	0	0	0	0	0	0	0	0	0	0	0	0;
	1056	0	0	13.9	-9.5	1	0	1	0.8	0	0	0	0	0	0	0	0	0	0	0	0;
	1056	0	0	13.9	-9.5	1	0	1	0.8	0	0	0	0	0	0	0	0	0	0	0	0;
	1821	45.9774751	0	0	0	1	0	1	90	0	0	0	0	0	0	0	0	0	0	0	0;
	1821	10.5353376	0	0	0	1	0	1	40	0	0	0	0	0	0	0	0	0	0	0	0;
	1443	1.78801282	0	24.5645161	-14.3219355	1	0	1	3.5	0	0	0	0	0	0	0	0	0	0	0	0;
	165	0	0	18.50625	-10.325	1	0	1	18.8	0	0	0	0	0	0	0	0	0	0	0	0;
	1703	0	0	13.9	-9.5	1	0	1	9.9	0	0	0	0	0	0	0	0	0	0	0	0;
	1703	0	0	13.9	-9.5	1	0	1	9.9	0	0	0	0	0	0	0	0	0	0	0	0;
	1703	0	0	13.9	-9.5	1	0	1	9.9	0	0	0	0	0	0	0	0	0	0	0	0;
	1703	0	0	18.6	-12.8	1	0	1	8.7	0	0	0	0	0	0	0	0	0	0	0	0;
	243	3.06516491	0	24.5645161	-14.3219355	1	0	1	6	0	0	0	0	0	0	0	0	0	0	0	0;
	2246	2.29887364	0	24.5645161	-14.3219355	1	0	1	4.5	0	0	0	0	0	0	0	0	0	0	0	0;
	751	0	0	18.50625	-10.325	1	0	1	19.2	0	0	0	0	0	0	0	0	0	0	0	0;
	1700	23.1419955	0	0	0	1	0	1	45.3	0	0	0	0	0	0	0	0	0	0	0	0;
	1700	5.36403818	0	0	0	1	0	1	10.5	0	0	0	0	0	0	0	0	0	0	0	0;
	8199	2.45213193	0	24.5645161	-14.3219355	1	0	1	4.8	0	0	0	0	0	0	0	0	0	0	0	0;
	8199	0	0	30.8333333	-20.8	1	0	1	1.5	0	0	0	0	0	0	0	0	0	0	0	0;
	8199	0	0	30.8333333	-20.8	1	0	1	1.5	0	0	0	0	0	0	0	0	0	0	0	0;
	8199	0	0	30.8333333	-20.8	1	0	1	1.5	0	0	0	0	0	0	0	0	0	0	0	0;
	989	2.65647624	0	24.5645161	-14.3219355	1	0	1	5.2	0	0	0	0	0	0	0	0	0	0	0	0;
	989	2.65647624	0	24.5645161	-14.3219355	1	0	1	5.2	0	0	0	0	0	0	0	0	0	0	0	0;
	1699	21.6604994	0	26.3	-14.1	1	0	1	42.4	0	0	0	0	0	0	0	0	0	0	0	0;
	1699	21.6604994	0	26.3	-14.1	1	0	1	42.4	0	0	0	0	0	0	0	0	0	0	0	0;
	1699	20.5876915	0	25	-13.4	1	0	1	40.3	0	0	0	0	0	0	0	0	0	0	0	0;
	1699	4.64883337	0	83.2	-44.7	1	0	1	9.1	0	0	0	0	0	0	0	0	0	0	0	0;
	1699	20.7920355	0	61.2301676	-35.8709497	1	0	1	40.7	0	0	0	0	0	0	0	0	0	0	0	0;
	1699	2.65647616	0	61.2301676	-35.8709497	1	0	1	5.2	0	0	0	0	0	0	0	0	0	0	0	0;
	1571	0	0	18.50625	-10.325	1	0	1	9.3	0	0	0	0	0	0	0	0	0	0	0	0;
	1660	46.3861636	0	56.3	-30.3	1	0	1	90.8	0	0	0	0	0	0	0	0	0	0	0	0;
	1660	11.9803316	0	26.3	-14.1	1	0	1	42.4	0	0	0	0	0	0	0	0	0	0	0	0;
	774	0	0	26.9	-18.5	1	0	1	55.5	0	0	0	0	0	0	0	0	0	0	0	0;
	1753	25.2876094	0	25.4	-16.5	1	0	1	49.5	0	0	0	0	0	0	0	0	0	0	0	0;
	1057	0	0	23.1666667	-13.7	1	0	1	1.2	0	0	0	0	0	0	0	0	0	0	0	0;
	1057	0	0	23.1666667	-13.7	1	0	1	1.2	0	0	0	0	0	0	0	0	0	0	0	0;
	1057	0	0	23.1666667	-13.7	1	0	1	3	0	0	0	0	0	0	0	0	0	0	0	0;
	1653	11.800885	0	11.2	-7.7	1	0	1	23.1	0	0	0	0	0	0	0	0	0	0	0	0;
	1653	6.69227505	0	17.5	-12.1	1	0	1	13.1	0	0	0	0	0	0	0	0	0	0	0	0;
	1016	1.12076474	0	24.5645161	-14.3219355	1	0	1	16.5	0	0	0	0	0	0	0	0	0	0	0	0;
	1016	1.12076474	0	24.5645161	-14.3219355	1	0	1	16.5	0	0	0	0	0	0	0	0	0	0	0	0;
	1698	0	0	24.2	-16.7	1	0	1	50	0	0	0	0	0	0	0	0	0	0	0	0;
	1620	2.55430414	0	13.1222222	-7.60444444	1	0	1	5	0	0	0	0	0	0	0	0	0	0	0	0;
	1620	2.55430414	0	13.1222222	-7.60444444	1	0	1	5	0	0	0	0	0	0	0	0	0	0	0	0;
	1620	2.55430414	0	13.1222222	-7.60444444	1	0	1	5	0	0	0	0	0	0	0	0	0	0	0	0;
	1621	2.55430414	0	13.1222222	-7.60444444	1	0	1	5	0	0	0	0	0	0	0	0	0	0	0	0;
	1621	2.55430414	0	13.1222222	-7.60444444	1	0	1	5	0	0	0	0	0	0	0	0	0	0	0	0;
	1620	2.55430414	0	13.1222222	-7.60444444	1	0	1	5	0	0	0	0	0	0	0	0	0	0	0	0;
	1620	2.55430414	0	13.1222222	-7.60444444	1	0	1	5	0	0	0	0	0	0	0	0	0	0	0	0;
	1620	2.55430414	0	13.1222222	-7.60444444	1	0	1	5	0	0	0	0	0	0	0	0	0	0	0	0;
	1665	38.3145584	0	0	0	1	0	1	75	0	0	0	0	0	0	0	0	0	0	0	0;
	1665	38.3145584	0	0	0	1	0	1	75	0	0	0	0	0	0	0	0	0	0	0	0;
	1665	38.3145584	0	0	0	1	0	1	75	0	0	0	0	0	0	0	0	0	0	0	0;
	1665	38.3145584	0	0	0	1	0	1	75	0	0	0	0	0	0	0	0	0	0	0	0;
	274	19.9746585	0	0	0	1	0	1	39.1	0	0	0	0	0	0	0	0	0	0	0	0;
	1251	3.06516491	0	24.5645161	-14.3219355	1	0	1	6	0	0	0	0	0	0	0	0	0	0	0	0;
	1704	17.3692672	0	0	0	1	0	1	34	0	0	0	0	0	0	0	0	0	0	0	0;
	481	11.2900245	0	9.4	-9.4	1	0	1	22.1	0	0	0	0	0	0	0	0	0	0	0	0;
...
];

%% branch data
%	fbus	tbus	r	x	b	rateA	rateB	rateC	ratio	angle	status	angmin	angmax
mpc.branch = [
	1	2410	4.77325417e-05	0.000218973035	2.70512591e-05	175	0	0	0	0	1	-60.0001403	60.0001403;
	2410	20	0.000914159703	0.00748537674	0.00232055065	437	0	0	0	0	1	-60.0001403	60.0001403;
	2410	2411	0.00354038775	0.0161378013	0.00246932935	185	0	0	0	0	1	-60.0001403	60.0001403;
	2411	1618	0.000155718691	0.000468686643	7.07109094e-05	142	0	0	0	0	1	-60.0001403	60.0001403;
	2411	1617	0.000648026445	0.00410435055	0.00053719108	219	0	0	0	0	1	-60.0001403	60.0001403;
	1617	2412	0.00104586812	0.00701611209	0.00081677558	219	0	0	0	0	1	-60.0001403	60.0001403;
	2359	2360	0.23093904	0.368843148	0.00711508047	41	0	0	0	0	1	-60.0001403	60.0001403;
	2031	2426	0.00167982866	0.00444059079	6.74965679e-05	64	0	0	0	0	1	-60.0001403	60.0001403;
	6724	5593	0.000459576453	0.00411439019	7.22140345e-05	141	0	0	0	0	1	-60.0001403	60.0001403;
	5593	2413	0.00427724305	0.015814843	0.000245113977	80	0	0	0	0	1	-60.0001403	60.0001403;
	2426	6724	0.00119739685	0.00449177354	6.75837109e-05	80	0	0	0	0	1	-60.0001403	60.0001403;
	2414	8021	0.00607038354	0.0205577663	0.00105555168	110	0	0	0	0	1	-60.0001403	60.0001403;
	2415	2446	0.00268915041	0.0119827433	0.000170345901	176	0	0	0	0	1	-60.0001403	60.0001403;
	2034	2417	0.000178272792	0.00144238896	3.11226109e-05	141	0	0	0	0	1	-60.0001403	60.0001403;
	2436	2416	0.00536988394	0.0139169574	0.000220271394	64	0	0	0	0	1	-60.0001403	60.0001403;
	2417	2436	0.000311443931	0.000823295262	1.25140108e-05	64	0	0	0	0	1	-60.0001403	60.0001403;
	2417	2418	0.00533881931	0.0138364481	0.000218997126	64	0	0	0	0	1	-60.0001403	60.0001403;
	1867	2034	0.00704879895	0.00968956783	0.000353618936	57	0	0	0	0	1	-60.0001403	60.0001403;
	1866	2440	0.00437737203	0.00857881308	0.000107641909	41	0	0	0	0	1	-60.0001403	60.0001403;
	2440	2419	0.0113465934	0.0325434284	0.000418943005	64	0	0	0	0	1	-60.0001403	60.0001403;
	2420	1866	0.00258402742	0.00669693863	0.000105996101	64	0	0	0	0	1	-60.0001403	60.0001403;
	2421	5705	0.0292415442	0.0231413002	0.000243913669	24	0	0	0	0	1	-60.0001403	60.0001403;
	5705	2419	0.00155469396	0.00259654105	3.69090311e-05	78	0	0	0	0	1	-60.0001403	60.0001403;
	2422	2423	0.0111844795	0.0320784635	0.000412957311	64	0	0	0	0	1	-60.0001403	60.0001403;
	2423	2424	0.000984844088	0.00333522864	0.0001712486	110	0	0	0	0	1	-60.0001403	60.0001403;
	2424	2425	0.00224089049	0.00567611124	9.41106365e-05	64	0	0	0	0	1	-60.0001403	60.0001403;
	2425	2032	0.00444610709	0.0123153993	0.000170192582	64	0	0	0	0	1	-60.0001403	60.0001403;
	2425	2414	0.00127788751	0.00337806797	5.13463182e-05	64	0	0	0	0	1	-60.0001403	60.0001403;
	2426	2362	0.00967328069	0.0162273162	0.000627388317	64	0	0	0	0	1	-60.0001403	60.0001403;
	2427	6726	0.000428856408	0.00118790119	1.64161853e-05	64	0	0	0	0	1	-60.0001403	60.0001403;
	6726	2428	0.0100595772	0.0260712859	0.000412648398	64	0	0	0	0	1	-60.0001403	60.0001403;
	2428	2429	0.00147847733	0.00176497675	6.30772255e-05	82	0	0	0	0	1	-60.0001403	60.0001403;
	2429	2430	0.000959384485	0.00243009328	4.02912501e-05	64	0	0	0	0	1	-60.0001403	60.0001403;
	2430	2033	0.00524468983	0.0135924954	0.000215135948	64	0	0	0	0	1	-60.0001403	60.0001403;
	2031	2431	0.0141827017	0.016931221	0.000605095908	82	0	0	0	0	1	-60.0001403	60.0001403;
	2431	2432	0.00543406783	0.0052504013	6.38209746e-05	56	0	0	0	0	1	-60.0001403	60.0001403;
	2432	2033	0.0125774637	0.0117800569	0.000390557917	70	0	0	0	0	1	-60.0001403	60.0001403;
	1867	2034	0.00539962535	0.00905807365	0.00035020714	64	0	0	0	0	1	-60.0001403	60.0001403;
	1867	2433	0.00722960279	0.0121279362	0.000468895712	64	0	0	0	0	1	-60.0001403	60.0001403;
	2434	2435	0.0017822708	0.00493676128	6.82235134e-05	64	0	0	0	0	1	-60.0001403	60.0001403;
	2433	2438	0.000956141855	0.00214511943	2.86330647e-05	57	0	0	0	0	1	-60.0001403	60.0001403;
	2438	2436	0.0168758595	0.0129447344	0.000145468799	24	0	0	0	0	1	-60.0001403	60.0001403;
	2437	2438	0.001586018	0.0045006143	5.91950429e-05	64	0	0	0	0	1	-60.0001403	60.0001403;
	2434	2437	0.000340729808	0.0005715866	2.20989137e-05	64	0	0	0	0	1	-60.0001403	60.0001403;
	2435	2439	0.000544305267	0.0013787095	2.28591744e-05	64	0	0	0	0	1	-60.0001403	60.0001403;
	2440	2420	0.00191367497	0.00505875855	7.68926621e-05	64	0	0	0	0	1	-60.0001403	60.0001403;
	2420	2441	0.00282964472	0.0080296346	0.000105611098	64	0	0	0	0	1	-60.0001403	60.0001403;
	2035	2421	0.00332991897	0.00944925041	0.000124282767	64	0	0	0	0	1	-60.0001403	60.0001403;
	2441	2442	0.000206456326	0.000699175639	3.58994387e-05	110	0	0	0	0	1	-60.0001403	60.0001403;
	2442	2443	0.000831074344	0.00210508734	3.49026104e-05	64	0	0	0	0	1	-60.0001403	60.0001403;
	2443	2444	0.00020846076	0.000705963764	3.62479776e-05	110	0	0	0	0	1	-60.0001403	60.0001403;
	2444	2445	0.00203788557	0.00564479724	7.80082331e-05	64	0	0	0	0	1	-60.0001403	60.0001403;
	2445	2446	0.00283550889	0.00960263869	0.000493053318	110	0	0	0	0	1	-60.0001403	60.0001403;
	2446	2034	0.000264075735	0.000894306927	4.59185295e-05	110	0	0	0	0	1	-60.0001403	60.0001403;
	2446	2034	0.000276649236	0.000936887778	4.81048597e-05	110	0	0	0	0	1	-60.0001403	60.0001403;
	2447	8021	0.000452088653	0.00246292072	0.000150496654	154	0	0	0	0	1	-60.0001403	60.0001403;
	2418	8021	0.000973698622	0.0032974839	0.000169310582	110	0	0	0	0	1	-60.0001403	60.0001403;
	2416	8021	0.000756738306	0.00256273576	0.000131584648	110	0	0	0	0	1	-60.0001403	60.0001403;
	2363	2364	0.016685018	0.0229360016	0.000837047154	57	0	0	0	0	1	-60.0001403	60.0001403;
	2363	2448	0.0154177762	0.0211939769	0.000773471782	57	0	0	0	0	1	-60.0001403	60.0001403;
	2364	2448	0.000895990983	0.00106961608	3.82262329e-05	82	0	0	0	0	1	-60.0001403	60.0001403;
	2448	2449	0.00205480826	0.00192452184	6.38058407e-05	70	0	0	0	0	1	-60.0001403	60.0001403;
	2450	6732	0.00195446905	0.00327869295	0.000126762171	64	0	0	0	0	1	-60.0001403	60.0001403;
	6732	5715	0.000844546891	0.0023073243	0.000109445066	92	0	0	0	0	1	-60.0001403	60.0001403;
	2451	6731	0.000762008639	0.00156596071	2.49960031e-05	57	0	0	0	0	1	-60.0001403	60.0001403;
	6731	2452	0.0082071505	0.0155111325	0.000210009447	41	0	0	0	0	1	-60.0001403	60.0001403;
	2449	2451	0.000473987286	0.00120059608	1.99060317e-05	64	0	0	0	0	1	-60.0001403	60.0001403;
	2451	2452	0.00558238747	0.00936466441	0.000362060699	64	0	0	0	0	1	-60.0001403	60.0001403;
	2450	2452	0.000360773779	0.00122178018	6.27327703e-05	110	0	0	0	0	1	-60.0001403	60.0001403;
	2453	2450	0.0160143661	0.0454438961	0.000597711623	64	0	0	0	0	1	-60.0001403	60.0001403;
	2454	2453	0.00110429115	0.00373974277	0.000192018541	110	0	0	0	0	1	-60.0001403	60.0001403;
	2454	2455	0.00205929226	0.00697390887	0.000358078202	110	0	0	0	0	1	-60.0001403	60.0001403;
	2454	2365	0.00101290845	0.00551820141	0.00033719002	308	0	0	0	0	1	-60.0001403	60.0001403;
	2455	2456	0.00972185506	0.017541482	0.000212274002	78	0	0	0	0	1	-60.0001403	60.0001403;
	2456	8021	0.00443461325	0.0150181861	0.00077112286	110	0	0	0	0	1	-60.0001403	60.0001403;
	2448	2457	0.0111592293	0.0187200688	0.000723764784	64	0	0	0	0	1	-60.0001403	60.0001403;
	2457	6733	0.00257262027	0.0066673751	0.000105528183	64	0	0	0	0	1	-60.0001403	60.0001403;
	6733	2458	0.00416078009	0.00874483471	0.000133365106	57	0	0	0	0	1	-60.0001403	60.0001403;
	2439	1868	0.000727343647	0.000681225858	2.25854477e-05	70	0	0	0	0	1	-60.0001403	60.0001403;
	5699	2032	0.0101521844	0.0223869688	0.000999879658	80	0	0	0	0	1	-60.0001403	60.0001403;
	2459	780	0.00319228707	0.0542558346	0.192198063	1023	0	0	0	0	1	-60.0001403	60.0001403;
	8185	2459	0.000885262041	0.0121798955	0.0242752098	1158	0	0	0	0	1	-60.0001403	60.0001403;
	8204	8522	0.0150786935	0.0981963297	0.196516247	366	0	0	0	0	1	-60.0001403	60.0001403;
	2385	2460	0.00445597566	0.00437727458	6.18506189e-05	30	0	0	0	0	1	-60.0001403	60.0001403;
	2465	2461	0.0118402553	0.0179577371	0.000215459909	35	0	0	0	0	1	-60.0001403	60.0001403;
	6742	2465	0.0752887963	0.0590154888	0.000634229629	24	0	0	0	0	1	-60.0001403	60.0001403;
	2461	2387	0.00025137974	0.000256682032	3.34666955e-06	30	0	0	0	0	1	-60.0001403	60.0001403;
	2460	6742	0.0880078979	0.0864566007	0.00122163636	30	0	0	0	0	1	-60.0001403	60.0001403;
	2460	2462	0.0189842543	0.0148806716	0.000159920218	24	0	0	0	0	1	-60.0001403	60.0001403;
	2462	2386	0.016281686	0.0171299256	0.000209922713	30	0	0	0	0	1	-60.0001403	60.0001403;
	2461	2463	0.00925650738	0.00725564116	7.79752282e-05	24	0	0	0	0	1	-60.0001403	60.0001403;
	2463	2462	0.00270147647	0.00494796781	7.15050294e-05	41	0	0	0	0	1	-60.0001403	60.0001403;
	2463	2464	0.0214678813	0.0385858804	0.000580074019	41	0	0	0	0	1	-60.0001403	60.0001403;
	2475	2469	0.0280222933	0.0202571004	0.000257168159	24	0	0	0	0	1	-60.0001403	60.0001403;
	2471	2394	0.000554763172	0.000425534229	4.7820183e-06	24	0	0	0	0	1	-60.0001403	60.0001403;
	2471	2470	0.0010908253	0.000802549745	9.82549015e-06	24	0	0	0	0	1	-60.0001403	60.0001403;
	2469	2470	0.00270350627	0.00368842514	5.51851204e-05	35	0	0	0	0	1	-60.0001403	60.0001403;
	2464	2475	0.00551322127	0.0118145044	0.000173162278	57	0	0	0	0	1	-60.0001403	60.0001403;
	2464	2391	0.00399984724	0.00567804465	7.82098188e-05	35	0	0	0	0	1	-60.0001403	60.0001403;
	2465	2466	0.0111103248	0.0111428008	0.000150829088	30	0	0	0	0	1	-60.0001403	60.0001403;
	2466	2388	0.00179253574	0.00368373859	5.88001629e-05	57	0	0	0	0	1	-60.0001403	60.0001403;
	2466	2467	0.00976221902	0.0191320994	0.00024005853	41	0	0	0	0	1	-60.0001403	60.0001403;
	2467	2391	0.00463750507	0.00473532329	6.17400547e-05	30	0	0	0	0	1	-60.0001403	60.0001403;
	2467	2468	0.00986699712	0.0186481712	0.000252482742	41	0	0	0	0	1	-60.0001403	60.0001403;
	2468	2392	0.000568404308	0.000402628222	5.32835295e-06	24	0	0	0	0	1	-60.0001403	60.0001403;
	2468	2469	0.0115182218	0.0174693183	0.000209599772	35	0	0	0	0	1	-60.0001403	60.0001403;
	2470	2393	0.00709638668	0.0103874681	0.000134251535	35	0	0	0	0	1	-60.0001403	60.0001403;
	2397	2477	0.000914486419	0.000898334756	1.26934142e-05	30	0	0	0	0	1	-60.0001403	60.0001403;
	2477	2396	0.0129924051	0.0181070092	0.000259204054	35	0	0	0	0	1	-60.0001403	60.0001403;
	2396	2472	0.0120599139	0.0238775105	0.000293381886	41	0	0	0	0	1	-60.0001403	60.0001403;
	2472	2395	0.000535046638	0.00141438416	2.14985067e-05	64	0	0	0	0	1	-60.0001403	60.0001403;
	2471	2470	0.00109212647	0.000837721787	9.41405097e-06	24	0	0	0	0	1	-60.0001403	60.0001403;
	2472	2474	0.000742859975	0.0013064028	2.05493384e-05	41	0	0	0	0	1	-60.0001403	60.0001403;
	2474	2473	0.0207446596	0.0149961378	0.000190379161	24	0	0	0	0	1	-60.0001403	60.0001403;
	2474	2471	0.0054765358	0.0149612698	0.000212715874	64	0	0	0	0	1	-60.0001403	60.0001403;
	2475	2473	0.0230388581	0.0253398718	0.000283115896	30	0	0	0	0	1	-60.0001403	60.0001403;
	2476	2390	0.0039554101	0.00291010258	3.56279275e-05	24	0	0	0	0	1	-60.0001403	60.0001403;
	2473	2476	0.0114404997	0.0226511244	0.000278313296	41	0	0	0	0	1	-60.0001403	60.0001403;
	2476	2389	0.00650967615	0.0068488092	8.39303223e-05	30	0	0	0	0	1	-60.0001403	60.0001403;
	2477	2272	0.0327961803	0.0642749365	0.000806492642	41	0	0	0	0	1	-60.0001403	60.0001403;
	8619	2330	0.000448570569	0.000636775178	8.77098908e-06	35	0	0	0	0	1	-60.0001403	60.0001403;
	2330	8563	0.0281836263	0.0552349577	0.000693061162	41	0	0	0	0	1	-60.0001403	60.0001403;
	2478	1446	0.0209506423	0.0617861225	0.00693416718	256	0	0	0	0	1	-60.0001403	60.0001403;
	2479	1446	0.000638683195	0.0039684246	0.000540107869	219	0	0	0	0	1	-60.0001403	60.0001403;
	2480	1446	0.00148219049	0.00436977857	0.00049022018	128	0	0	0	0	1	-60.0001403	60.0001403;
	2481	2487	0.0809334709	0.203648563	0.0254721786	118	0	0	0	0	1	-60.0001403	60.0001403;
	2487	2486	3.40624293e-05	8.75604801e-05	1.04560073e-05	118	0	0	0	0	1	-60.0001403	60.0001403;
	2486	2482	0.0133749958	0.0343825384	0.00410591033	118	0	0	0	0	1	-60.0001403	60.0001403;
	8444	2478	0.0295263018	0.0794730417	0.0107562835	256	0	0	0	0	1	-60.0001403	60.0001403;
	8444	2483	0.028864899	0.0785958617	0.00835164122	118	0	0	0	0	1	-60.0001403	60.0001403;
	2484	2489	0.0140424492	0.0579930271	0.00661927754	318	0	0	0	0	1	-60.0001403	60.0001403;
	2489	8336	0.0892168491	0.229617762	0.0274586447	118	0	0	0	0	1	-60.0001403	60.0001403;
	1446	2485	0.00235550799	0.00895336354	0.00120865363	159	0	0	0	0	1	-60.0001403	60.0001403;
	8000	2486	0.000838583522	0.00273507289	0.000350161965	142	0	0	0	0	1	-60.0001403	60.0001403;
	8000	2487	0.00108407008	0.00272505509	0.000340452145	118	0	0	0	0	1	-60.0001403	60.0001403;
	2488	2489	0.000742876854	0.00331022472	0.000433758325	175	0	0	0	0	1	-60.0001403	60.0001403;
	8234	8486	0.00614913981	0.0424490925	0.0751686518	732	0	0	0	0	1	-60.0001403	60.0001403;
	778	2528	3.20003803e-05	0.000155297084	1.71196304e-05	175	0	0	0	0	1	-60.0001403	60.0001403;
	2618	775	1.7538224e-05	0.000138175335	1.94900311e-05	250	0	0	0	0	1	-60.0001403	60.0001403;
	2534	2500	0.00157148391	0.0135333669	0.0037895698	437	0	0	0	0	1	-60.0001403	60.0001403;
	2528	2534	0.00653306878	0.0322750702	0.00454591905	191	0	0	0	0	1	-60.0001403	60.0001403;
	2500	2618	0.00777053207	0.0500540746	0.00632812824	219	0	0	0	0	1	-60.0001403	60.0001403;
	8328	2622	0.00352184195	0.0247118314	0.0421135471	732	0	0	0	0	1	-60.0001403	60.0001403;
	2622	8486	1.52014109e-05	0.000107514132	0.000227633975	383	0	0	0	0	1	-60.0001403	60.0001403;
	7753	2498	0.0121143386	0.103921648	0.0142665892	261	0	0	0	0	1	-60.0001403	60.0001403;
	2498	1718	0.0145448556	0.0405605035	0.00410567394	118	0	0	0	0	1	-60.0001403	60.0001403;
	203	2538	0.000287501973	0.00220047793	0.000782513397	437	0	0	0	0	1	-60.0001403	60.0001403;
	2546	2490	0.00511699979	0.0249699813	0.00332555792	185	0	0	0	0	1	-60.0001403	60.0001403;
	2538	2546	0.00403316394	0.0131543724	0.00168411738	142	0	0	0	0	1	-60.0001403	60.0001403;
	2491	2575	0.00533266894	0.0277775066	0.00351332692	191	0	0	0	0	1	-60.0001403	60.0001403;
	2575	8306	0.0217254592	0.0605870268	0.00613311511	118	0	0	0	0	1	-60.0001403	60.0001403;
	2542	2492	0.00222977265	0.00847543765	0.00114413602	159	0	0	0	0	1	-60.0001403	60.0001403;
	8306	2542	0.000365491748	0.00407785338	0.00130901997	523	0	0	0	0	1	-60.0001403	60.0001403;
	2491	8329	0.000129356333	0.000896870612	0.000253555522	381	0	0	0	0	1	-60.0001403	60.0001403;
	8235	198	0.0449299773	0.289929958	0.0367480881	219	0	0	0	0	1	-60.0001403	60.0001403;
	7753	7611	0.000259364897	0.00180683395	0.000327568259	250	0	0	0	0	1	-60.0001403	60.0001403;
	7611	2619	0.0615460655	0.397797986	0.0505379334	177.755244	0	0	0	0	1	-60.0001403	60.0001403;
	2619	8235	0.00453376777	0.0364236877	0.00493746584	250	0	0	0	0	1	-60.0001403	60.0001403;
	200	8141	0.122756307	0.0941651412	0.0010581944	24	0	0	0	0	1	-60.0001403	60.0001403;
	8487	2611	0.0113592234	0.0389672561	0.00450209033	142	0	0	0	0	1	-60.0001403	60.0001403;
	2611	2493	0.0127082921	0.0319459441	0.00399124887	118	0	0	0	0	1	-60.0001403	60.0001403;
	2494	198	0.0111598359	0.0376012182	0.00450668871	142	0	0	0	0	1	-60.0001403	60.0001403;
	2494	7753	0.0279274037	0.17181573	0.0239190131	219	0	0	0	0	1	-60.0001403	60.0001403;
	198	8768	0.0453131015	0.353423715	0.0444459377	200.073383	0	0	0	0	1	-60.0001403	60.0001403;
	205	2506	0.0110412913	0.100446442	0.0122309079	261	0	0	0	0	1	-60.0001403	60.0001403;
	2506	1043	0.0205489097	0.063907473	0.00643162062	128	0	0	0	0	1	-60.0001403	60.0001403;
	2495	2496	0.00309580406	0.00802330662	0.00117053237	128	0	0	0	0	1	-60.0001403	60.0001403;
	1718	1528	0.0473475171	0.180109905	0.0243392022	159	0	0	0	0	1	-60.0001403	60.0001403;
	7765	2408	0.0108950663	0.0287941087	0.00325028351	118	0	0	0	0	1	-60.0001403	60.0001403;
	7765	2497	0.00157223131	0.0122538998	0.0017668853	250	0	0	0	0	1	-60.0001403	60.0001403;
	2497	2498	0.0773647909	0.217253414	0.0270032946	128	0	0	0	0	1	-60.0001403	60.0001403;
	196	2497	0.000411768236	0.0055071286	0.000726105631	347	0	0	0	0	1	-60.0001403	60.0001403;
	2499	2617	0.00227303584	0.00620967101	8.82876131e-05	64	0	0	0	0	1	-60.0001403	60.0001403;
	2617	8305	0.0323409623	0.0927595501	0.00119415298	64	0	0	0	0	1	-60.0001403	60.0001403;
	7764	195	0.139759104	0.276764154	0.00340124793	41	0	0	0	0	1	-60.0001403	60.0001403;
	2500	2501	0.000166693364	0.000428500002	5.11691937e-05	118	0	0	0	0	1	-60.0001403	60.0001403;
	777	2523	0.0190300167	0.101177606	0.0113238232	185	0	0	0	0	1	-60.0001403	60.0001403;
	2523	2521	0.0037046966	0.0205554966	0.00301325555	205	0	0	0	0	1	-60.0001403	60.0001403;
	2521	1872	4.02618323e-05	0.000313797752	4.52461401e-05	250	0	0	0	0	1	-60.0001403	60.0001403;
	8235	774	0.0135835734	0.0453154751	0.00554254872	142	0	0	0	0	1	-60.0001403	60.0001403;
	196	2502	0.00114797359	0.00658300935	0.00105518617	219	0	0	0	0	1	-60.0001403	60.0001403;
	1718	2503	0.0123439654	0.0317319845	0.0037893674	118	0	0	0	0	1	-60.0001403	60.0001403;
	2503	1719	4.57073724e-05	0.000209682571	2.59035436e-05	175	0	0	0	0	1	-60.0001403	60.0001403;
	2503	194	0.0116175639	0.0301096157	0.00439285906	128	0	0	0	0	1	-60.0001403	60.0001403;
	1872	2504	0.00221881959	0.00586392394	0.000661907227	118	0	0	0	0	1	-60.0001403	60.0001403;
	2504	8235	0.00142882899	0.00697234329	0.000928579371	370	0	0	0	0	1	-60.0001403	60.0001403;
	2504	8235	0.00567908497	0.0145986603	0.00174330442	118	0	0	0	0	1	-60.0001403	60.0001403;
	8234	2505	0.000839387522	0.0107036267	0.0364449741	834	0	0	0	0	1	-60.0001403	60.0001403;
	202	182	0.0126674537	0.0659890664	0.00834728598	191	0	0	0	0	1	-60.0001403	60.0001403;
	182	2506	0.00560713908	0.0384896142	0.00541405261	230	0	0	0	0	1	-60.0001403	60.0001403;
	2507	1869	0.0013069144	0.00948861964	0.00158111785	250	0	0	0	0	1	-60.0001403	60.0001403;
	771	5545	6.10390364e-05	0.00026566514	3.64998416e-05	175	0	0	0	0	1	-60.0001403	60.0001403;
	5545	5543	0.000758304847	0.00650341943	0.000892476885	261	0	0	0	0	1	-60.0001403	60.0001403;
	5543	5527	0.00129890872	0.010805621	0.00157799601	261	0	0	0	0	1	-60.0001403	60.0001403;
	5527	2507	0.00396288545	0.0296959934	0.00349309133	230	0	0	0	0	1	-60.0001403	60.0001403;
	2507	1525	4.50755669e-05	0.000151869987	1.820163e-05	142	0	0	0	0	1	-60.0001403	60.0001403;
	1869	2508	0.00278530721	0.0237237178	0.00285456134	250	0	0	0	0	1	-60.0001403	60.0001403;
	2508	2509	0.00107012035	0.00677773559	0.000887093454	219	0	0	0	0	1	-60.0001403	60.0001403;
	2509	2028	4.05102462e-05	0.000185840755	2.29581985e-05	175	0	0	0	0	1	-60.0001403	60.0001403;
	2509	2526	0.00120152674	0.00804616926	0.00243957067	381	0	0	0	0	1	-60.0001403	60.0001403;
...
];

%%-----  OPF Data  -----%%
%% generator cost data
%	1	startup	shutdown	n	x1	y1	...	xn	yn
%	2	startup	shutdown	n	c(n-1)	...	c0
mpc.gencost = [
	2	0	0	3	0.082991653	44.9151794	1427.41303;
	2	0	0	3	0.082991653	44.9151794	1427.41303;
	2	0	0	3	0.018728377	6.603145	74.6992503;
	2	0	0	3	0.018728377	6.603145	74.6992503;
	2	0	0	3	0.018728377	6.603145	74.6992503;
	2	0	0	3	0.018728377	6.603145	74.6992503;
	2	0	0	3	0.018728377	6.603145	74.6992503;
	2	0	0	3	0.018728377	6.603145	74.6992503;
	2	0	0	3	0.018728377	6.603145	74.6992503;
	2	0	0	3	0.018728377	6.603145	74.6992503;
	2	0	0	3	0.018728377	6.603145	74.6992503;
	2	0	0	3	0.018728377	6.603145	74.6992503;
	2	0	0	3	0.022715841	13.4742144	878.874372;
	2	0	0	3	0.022715841	13.4742144	878.874372;
	2	0	0	3	0.022715841	13.4742144	878.874372;
	2	0	0	3	0.022715841	13.4742144	878.874372;
	2	0	0	3	0.022715841	13.4742144	878.874372;
	2	0	0	3	0.022715841	13.4742144	878.874372;
	2	0	0	3	0.0069886	21.363	796.7;
	2	0	0	3	0.0069886	21.363	796.7;
	2	0	0	3	0.0038575	21.025	1184.1;
	2	0	0	3	0.0097412	21.909	600.51;
	2	0	0	3	0.065960886	14.1545215	301.435141;
	2	0	0	3	0.065960886	14.1545215	301.435141;
	2	0	0	3	0.065960886	14.1545215	301.435141;
	2	0	0	3	0.065960886	14.1545215	301.435141;
	2	0	0	3	0.0028305	19.79	2076.3;
	2	0	0	3	0.0028305	19.79	2076.3;
	2	0	0	3	0.013315533	22.6772275	469.549327;
	2	0	0	3	0.013315533	22.6772275	469.549327;
	2	0	0	3	0.003724619	21.031305	1187.18678;
	2	0	0	3	0.007460776	9.85465117	2635.89483;
	2	0	0	3	0.007460776	9.85465117	2635.89483;
	2	0	0	3	0.02801483	13.5442631	714.197795;
	2	0	0	3	0.007460776	9.85465117	2635.89483;
	2	0	0	3	0.007460776	9.85465117	2635.89483;
	2	0	0	3	0.02801483	13.5442631	714.197795;
	2	0	0	3	0.11955343	16.3717119	230.144388;
	2	0	0	3	0.11955343	16.3717119	230.144388;
	2	0	0	3	0.25325	58.907	173.53;
	2	0	0	3	0.063206218	25.1702183	164.808375;
	2	0	0	3	0.063206218	25.1702183	164.808375;
	2	0	0	3	0.025784945	9.8240636	475.10697;
	2	0	0	3	0.011886341	9.82406397	1030.64543;
	2	0	0	3	0.059122552	14.495962	290.065816;
	2	0	0	3	0.066698734	16.3717118	411.887105;
	2	0	0	3	0.012524817	9.50758888	1648.14099;
	2	0	0	3	0.028560511	15.8580029	915.141767;
	2	0	0	3	0.030947744	13.5754577	314.917371;
	2	0	0	3	0.030947744	13.5754577	314.917371;
	2	0	0	3	0.030580892	24.5037276	248.251086;
	2	0	0	3	0.067573963	16.3717118	401.19412;
	2	0	0	3	0.045648313	8.49648297	1399.03018;
	2	0	0	3	0.045648313	8.49648297	1399.03018;
	2	0	0	3	0.032401462	15.9947772	848.043789;
	2	0	0	3	0.061704604	14.4479757	299.144996;
	2	0	0	3	0.061704604	14.4479757	299.144996;
	2	0	0	3	0.061704604	14.4479757	299.144996;
	2	0	0	3	0.061704604	14.4479757	299.144996;
	2	0	0	3	0.061704604	14.4479757	299.144996;
	2	0	0	3	0.00927701	21.8534111	632.873059;
	2	0	0	3	0.030006828	10.4367429	1415.75836;
	2	0	0	3	0.011923608	16.8059313	372.365163;
	2	0	0	3	0.011923608	16.8059313	372.365163;
	2	0	0	3	0.011923608	16.8059313	372.365163;
	2	0	0	3	0.011923608	16.8059313	372.365163;
	2	0	0	3	0.011923608	16.8059313	372.365163;
	2	0	0	3	0.011923608	16.8059313	372.365163;
	2	0	0	3	0.00927701	21.8534111	632.873059;
	2	0	0	3	0.019990904	13.3790287	979.430278;
	2	0	0	3	0.030006828	10.4367429	1415.75836;
	2	0	0	3	0.013281799	22.6734243	470.5849;
	2	0	0	3	0.013281799	22.6734243	470.5849;
	2	0	0	3	0.023001417	13.471932	874.243191;
	2	0	0	3	0.023001417	13.471932	874.243191;
	2	0	0	3	0.11372107	11.9204156	252.039838;
	2	0	0	3	0.11372107	11.9204156	252.039838;
	2	0	0	3	0.062009558	14.4193436	299.16754;
	2	0	0	3	0.029857916	10.4426725	1481.47126;
	2	0	0	3	0.029857916	10.4426725	1481.47126;
	2	0	0	3	0.019971454	13.3834953	981.323331;
	2	0	0	3	0.127647427	11.8081357	243.988901;
	2	0	0	3	0.127647427	11.8081357	243.988901;
	2	0	0	3	0.06245024	14.41881	299.420007;
	2	0	0	3	0.06245024	14.41881	299.420007;
	2	0	0	3	0.032401462	15.9947772	848.043789;
	2	0	0	3	0.032621593	16.0099954	818.239169;
	2	0	0	3	0	0	0;
	2	0	0	3	0.201878706	15.6387635	141.922833;
	2	0	0	3	0.201878706	15.6387635	141.922833;
	2	0	0	3	0.176444024	16.2591415	139.009799;
	2	0	0	3	0.176444024	16.2591415	139.009799;
	2	0	0	3	0.176444024	16.2591415	139.009799;
	2	0	0	3	0.176444024	16.2591415	139.009799;
	2	0	0	3	0	7.02752861	0;
	2	0	0	3	0	7.02752861	0;
	2	0	0	3	0.04860652	43.2789605	1721.38761;
	2	0	0	3	0.04860652	43.2789605	1721.38761;
	2	0	0	3	0.04860652	43.2789605	1721.38761;
	2	0	0	3	0.298333333	25.05	57.6;
	2	0	0	3	0.298333333	25.05	57.6;
	2	0	0	3	0.298333333	25.05	57.6;
	2	0	0	3	0.298333333	25.05	57.6;
	2	0	0	3	0.298333333	25.05	57.6;
	2	0	0	3	0.298333333	25.05	57.6;
	2	0	0	3	0.051140815	13.5022417	315.964182;
	2	0	0	3	0.051140815	13.5022417	315.964182;
	2	0	0	3	0.061066146	16.3717118	438.904604;
	2	0	0	3	0.090857025	7.47471435	628.261588;
	2	0	0	3	0.018728377	6.603145	74.6992503;
	2	0	0	3	0.018728377	6.603145	74.6992503;
	2	0	0	3	0.018728377	6.603145	74.6992503;
	2	0	0	3	0.018728377	6.603145	74.6992503;
	2	0	0	3	0.018728377	6.603145	74.6992503;
	2	0	0	3	0.018728377	6.603145	74.6992503;
	2	0	0	3	0.055551504	14.5116537	283.573452;
	2	0	0	3	0.151710181	17.2716389	135.454897;
	2	0	0	3	0.230762555	11.7335702	239.921641;
	2	0	0	3	0.230762555	11.7335702	239.921641;
	2	0	0	3	0.09454125	16.3717118	273.739392;
	2	0	0	3	0.140609225	7.89566926	443.628589;
	2	0	0	3	0.030947744	13.5754577	314.917371;
	2	0	0	3	0	0	0;
	2	0	0	3	0	0	0;
	2	0	0	3	0.298333333	25.05	57.6;
	2	0	0	3	0.298333333	25.05	57.6;
	2	0	0	3	0.298333333	25.05	57.6;
	2	0	0	3	0.298333333	25.05	57.6;
	2	0	0	3	0.298333333	25.05	57.6;
	2	0	0	3	0.055051166	14.5133198	283.091952;
	2	0	0	3	0.184893025	13.9248083	228.006765;
	2	0	0	3	0.184893025	13.9248083	228.006765;
	2	0	0	3	0.047207877	9.40230679	968.448887;
	2	0	0	3	0.047207877	9.40230679	968.448887;
	2	0	0	3	0.047207877	9.40230679	968.448887;
	2	0	0	3	0.076801027	12.9312538	315.65224;
	2	0	0	3	0.005912852	9.82406357	2124.26732;
	2	0	0	3	0.041625805	16.2720218	610.242557;
	2	0	0	3	0.897330169	48.2276671	546.49488;
	2	0	0	3	0.897330169	48.2276671	546.49488;
	2	0	0	3	0.062834015	14.293201	299.758091;
	2	0	0	3	0.059582959	14.49398	291.64126;
	2	0	0	3	0.094703922	22.409643	554.685123;
	2	0	0	3	0.094703922	22.409643	554.685123;
	2	0	0	3	0.094703922	22.409643	554.685123;
	2	0	0	3	0.094703922	22.409643	554.685123;
	2	0	0	3	0.007277085	9.8240635	1683.4498;
	2	0	0	3	0.05977672	16.3717118	460.288776;
	2	0	0	3	0.051140815	13.5022417	315.964182;
	2	0	0	3	0.136386627	34.9221993	113.70841;
	2	0	0	3	0.094703922	22.409643	554.685123;
	2	0	0	3	0.094703922	22.409643	554.685123;
	2	0	0	3	0.094703922	22.409643	554.685123;
	2	0	0	3	0.094703922	22.409643	554.685123;
	2	0	0	3	0.051140815	13.5022417	315.964182;
	2	0	0	3	0.051140815	13.5022417	315.964182;
	2	0	0	3	0.140223245	34.9374205	111.511326;
	2	0	0	3	0.054159555	9.12733241	894.045353;
	2	0	0	3	0.040862714	16.243934	628.810719;
	2	0	0	3	0.051140815	13.5022417	315.964182;
	2	0	0	3	0.298333333	25.05	57.6;
	2	0	0	3	0.298333333	25.05	57.6;
	2	0	0	3	0.298333333	25.05	57.6;
	2	0	0	3	0.051140815	13.5022417	315.964182;
	2	0	0	3	0.051140815	13.5022417	315.964182;
	2	0	0	3	0.087384278	8.94241382	772.625301;
	2	0	0	3	0.087384278	8.94241382	772.625301;
	2	0	0	3	0.109041982	8.36860157	497.141236;
	2	0	0	3	0.016096182	15.236961	1547.8861;
	2	0	0	3	0.016096182	15.236961	1547.8861;
	2	0	0	3	0.016096182	15.236961	1547.8861;
	2	0	0	3	0.085566985	34.6938271	205.867441;
	2	0	0	3	0.025323319	9.79517349	1565.83201;
	2	0	0	3	0.052566817	16.3717118	479.664228;
	2	0	0	3	0.057427858	34.4586717	256.811264;
	2	0	0	3	0.052607649	14.5989327	282.135082;
	2	0	0	3	0.25325	58.907	173.53;
	2	0	0	3	0.25325	58.907	173.53;
	2	0	0	3	0.25325	58.907	173.53;
	2	0	0	3	0.195165562	8.40984319	222.512216;
	2	0	0	3	0.065412194	16.3717118	413.488522;
	2	0	0	3	0.151710181	17.2716389	135.454897;
	2	0	0	3	0.151710181	17.2716389	135.454897;
	2	0	0	3	0.116	58.907	379;
	2	0	0	3	0	0	0;
	2	0	0	3	0	0	0;
	2	0	0	3	0	0	0;
	2	0	0	3	0	0	0;
	2	0	0	3	0	0	0;
	2	0	0	3	0	0	0;
	2	0	0	3	0	0	0;
	2	0	0	3	0	0	0;
	2	0	0	3	0.036019142	14.6687276	439.07926;
	2	0	0	3	0.036019142	14.6687276	439.07926;
	2	0	0	3	0.036019142	14.6687276	439.07926;
	2	0	0	3	0.036019142	14.6687276	439.07926;
	2	0	0	3	0.057666682	13.1963561	300.682772;
	2	0	0	3	0.051140815	13.5022417	315.964182;
	2	0	0	3	0.046668863	15.5533405	110.850758;
	2	0	0	3	0.32275983	7.28651264	89.5226255;
...
];
